LTspice 24.0.12 for Windows
Circuit: * C:\Users\nihar\OneDrive\Documents\LTspice\Single phase dc-ac converter.asc
Start Time: Thu Oct 31 16:26:41 2024
solver = Normal
Maximum thread count: 8
tnom = 27
temp = 27
method = modified trap
Direct Newton iteration for .op point succeeded.
Total elapsed time: 2.512 seconds.

